scripts/network.dss
Clear
New Circuit.network basekv=1.2 pu=1.0 phases=1
Edit Vsource.Source bus1=bus0.1 phases=1 basekv=1.2 pu=1.0
New Line.L_0_1 phases=1 bus1=bus0.1 bus2=bus1.1 r1=0.01 x1=0.01 length=1 units=km
New Line.L_1_2 phases=1 bus1=bus1.1 bus2=bus2.1 r1=0.01 x1=0.01 length=1 units=km
New Line.L_2_3 phases=1 bus1=bus2.1 bus2=bus3.1 r1=0.01 x1=0.01 length=1 units=km
New Line.L_3_4 phases=1 bus1=bus3.1 bus2=bus4.1 r1=0.01 x1=0.01 length=1 units=km
New Line.L_4_5 phases=1 bus1=bus4.1 bus2=bus5.1 r1=0.01 x1=0.01 length=1 units=km
New Line.L_5_6 phases=1 bus1=bus5.1 bus2=bus6.1 r1=0.01 x1=0.01 length=1 units=km

New LoadShape.LS_1 npts=10 interval=0.000833 UseActual=Yes Pmult=(0.34117 0.34197333 0.34168333 0.34179667 0.34133 0.341223324 0.34124999500000003 0.34150333 0.34219666 0.34535667000000003)
New LoadShape.LS_2 npts=10 interval=0.000833 UseActual=Yes Pmult=(0.038299999999999994 0.038323334 0.038310000000000004 0.038290001000000004 0.03832 0.038333334000000004 0.038243333 0.038259999 0.03826 0.038226666)
New LoadShape.LS_3 npts=10 interval=0.000833 UseActual=Yes Pmult=(0.7574599900000001 0.7597500300000001 0.7580800000000001 0.7585433399999999 0.7571366399999999 0.76019003 0.75817666 0.76038334 0.761 0.75955666)
New LoadShape.LS_4 npts=10 interval=0.000833 UseActual=Yes Pmult=(0.9578022330195921 0.9578022330195921 0.9578022330195921 0.9578022330195921 0.9578022330195921 0.9578022330195921 0.9578022330195921 0.9569696655498197 0.9569696655498197 0.9569696655498197)
New LoadShape.LS_5 npts=10 interval=0.000833 UseActual=Yes Pmult=(0.55015667 0.54908333 0.548043336 0.54838999 0.549309995 0.55026333 0.5505633400000001 0.5504066599999999 0.55110333 0.54972667)
New LoadShape.LS_6 npts=10 interval=0.000833 UseActual=Yes Pmult=(0.31232333500000004 0.31324667 0.312739994 0.31291 0.31163 0.31223667 0.311503325 0.312173325 0.31172667000000004 0.31241999)

New Load.Load_1 bus1=bus1.1 phases=1 conn=wye model=1 kV=1.2 Daily=LS_1
New Load.Load_2 bus1=bus2.1 phases=1 conn=wye model=1 kV=1.2 Daily=LS_2
New Load.Load_3 bus1=bus3.1 phases=1 conn=wye model=1 kV=1.2 Daily=LS_3
New Load.Load_4 bus1=bus4.1 phases=1 conn=wye model=1 kV=1.2 Daily=LS_4
New Load.Load_5 bus1=bus5.1 phases=1 conn=wye model=1 kV=1.2 Daily=LS_5
New Load.Load_6 bus1=bus6.1 phases=1 conn=wye model=1 kV=1.2 Daily=LS_6

Set mode=Daily
Set number=10
Set stepsize=3s

Solve
